Info: SIMULATION PARAMETERS:
Info: TIMESTEP               1
Info: NUMBER OF STEPS        0
Info: STEPS PER CYCLE        20
Info: FIRST LDB TIMESTEP     100
Info: LAST LDB TIMESTEP     -1
Info: HOM BACKGROUND SCALING 1
Info: MIN ATOMS PER PATCH    40
Info: INITIAL TEMPERATURE    300
Info: CENTER OF MASS MOVING INITIALLY? NO
Info: DIELECTRIC             80
Info: EXCLUDE                SCALED ONE-FOUR
Info: 1-4 ELECTROSTATICS SCALED BY 1
Info: MODIFIED 1-4 VDW PARAMETERS WILL BE USED
Info: DCD FILENAME           simulation-step1.dcd
Info: DCD FREQUENCY          1000
Info: DCD FIRST STEP         1000
Info: NO EXTENDED SYSTEM TRAJECTORY OUTPUT
Info: NO VELOCITY DCD OUTPUT
Info: NO FORCE DCD OUTPUT
Info: OUTPUT FILENAME        simulation-step1
Info: BINARY OUTPUT FILES WILL BE USED
Info: RESTART FILENAME       simulation-step1.restart
Info: RESTART FREQUENCY      1000
Info: BINARY RESTART FILES WILL BE USED
Info: SWITCHING ACTIVE
Info: SWITCHING ON           9
Info: SWITCHING OFF          10
Info: PAIRLIST DISTANCE      11
Info: PAIRLIST SHRINK RATE   0.01
Info: PAIRLIST GROW RATE     0.01
Info: PAIRLIST TRIGGER       0.3
Info: PAIRLISTS PER CYCLE    2
Info: PAIRLISTS ENABLED
Info: MARGIN                 0
Info: HYDROGEN GROUP CUTOFF  2.5
Info: PATCH DIMENSION        13.5
Info: ENERGY OUTPUT STEPS    100
Info: CROSSTERM ENERGY INCLUDED IN DIHEDRAL
Info: TIMING OUTPUT STEPS    1000
Info: PRESSURE OUTPUT STEPS  100
Info: GRID FORCE ACTIVE
Info:  Please include this reference in published work using
Info:  the Gridforce module of NAMD: David Wells, Volha Abramkina,
Info:  and Aleksei Aksimentiev, J. Chem. Phys. 127:125101-10 (2007).
Info: MGRIDFORCE key 0
Info:            Potfile emd_6640-grid.dx
Info:            Scale 0.3 0.3 0.3
Info:            File 3jd8_cryst_altered-grid.pdb
Info:            Col O
Info:            ChargeCol B
Info:            VOffset 0 0 0
Info:            Continuous K1 FALSE
Info:            Continuous K2 FALSE
Info:            Continuous K3 FALSE
Info:            Volts FALSE
Info:            Gridforce-Lite FALSE
Info:            Gridforce-CheckSize TRUE
Info: LANGEVIN DYNAMICS ACTIVE
Info: LANGEVIN TEMPERATURE   300
Info: LANGEVIN USING BBK INTEGRATOR
Info: LANGEVIN DAMPING COEFFICIENT IS 5 INVERSE PS
Info: LANGEVIN DYNAMICS NOT APPLIED TO HYDROGENS
Info: USING VERLET I (r-RESPA) MTS SCHEME.
Info: C1 SPLITTING OF LONG RANGE ELECTROSTATICS
Info: PLACING ATOMS IN PATCHES BY HYDROGEN GROUPS
Info: RIGID BONDS TO HYDROGEN : WATER
Info:         ERROR TOLERANCE : 1e-08
Info:          MAX ITERATIONS : 100
Info: RIGID WATER USING SETTLE ALGORITHM
Info: NONBONDED FORCES EVALUATED EVERY 2 STEPS
Info: RANDOM NUMBER SEED     1516562640
Info: USE HYDROGEN BONDS?    NO
Info: COORDINATE PDB         3jd8_cryst_altered_autopsf.pdb
Info: STRUCTURE FILE         3jd8_cryst_altered_autopsf.psf
Info: PARAMETER file: CHARMM format!
Info: PARAMETERS             /opt/bioxray/programs/vmd-1.93/lib/plugins/noarch/tcl/readcharmmpar1.3/par_all36_lipid.prm
Info: PARAMETERS             /opt/bioxray/programs/vmd-1.93/lib/plugins/noarch/tcl/readcharmmpar1.3/par_all36_prot.prm
Info: PARAMETERS             /opt/bioxray/programs/vmd-1.93/lib/plugins/noarch/tcl/readcharmmpar1.3/par_all36_carb.prm
Info: PARAMETERS             /opt/bioxray/programs/vmd-1.93/lib/plugins/noarch/tcl/readcharmmpar1.3/toppar_water_ions_namd.str
Info: PARAMETERS             /opt/bioxray/programs/vmd-1.93/lib/plugins/noarch/tcl/readcharmmpar1.3/par_all36_cgenff.prm
Info: PARAMETERS             /opt/bioxray/programs/vmd-1.93/lib/plugins/noarch/tcl/readcharmmpar1.3/par_all36_na.prm
Info: USING ARITHMETIC MEAN TO COMBINE L-J SIGMA PARAMETERS
Info: 911 BONDS
Info: 2652 ANGLES
Info: 6440 DIHEDRAL
Info: 189 IMPROPER
Info: 6 CROSSTERM
Info: 350 VDW
Info: 6 VDW_PAIRS
Info: 0 NBTHOLE_PAIRS
Info: READING EXTRA BONDS FILE 3jd8_cryst_altered-extrabonds.txt
Info: READING EXTRA BONDS FILE 3jd8_cryst_altered-extrabonds-cis.txt
Info: READING EXTRA BONDS FILE 3jd8_cryst_altered-extrabonds-chi.txt
Info: READ 369 EXTRA BONDS
Info: READ 369 EXTRA ANGLES
Info: READ 2553 EXTRA DIHEDRALS
Info: READ 2360 EXTRA IMPROPERS
Info: STRUCTURE SUMMARY:
Info: 17558 ATOMS
Info: 18172 BONDS
Info: 32487 ANGLES
Info: 49747 DIHEDRALS
Info: 5339 IMPROPERS
Info: 1125 CROSSTERMS
Info: 0 EXCLUSIONS
Info: 0 RIGID BONDS
Info: 1 GRIDS ACTIVE
Info: 52674 DEGREES OF FREEDOM
Info: 8876 HYDROGEN GROUPS
Info: 4 ATOMS IN LARGEST HYDROGEN GROUP
Info: 8876 MIGRATION GROUPS
Info: 4 ATOMS IN LARGEST MIGRATION GROUP
Info: TOTAL MASS = 126087 amu
Info: TOTAL CHARGE = -32 e
Info: NONBONDED TABLE R-SQUARED SPACING: 0.0625
Info: NONBONDED TABLE SIZE: 705 POINTS
Info: ORIGINAL ATOMS MINMAX IS 98.46 90.219 82.469  165.442 171.848 239.515
Info: ADJUSTED ATOMS MINMAX IS 113.21 106.558 92.6086  151.811 156.586 221.202
Info: REMOVING COM VELOCITY -0.00755463 -0.0384225 0.0349435
Info: Updated CUDA force table with 4096 elements.
Info: Updated CUDA LJ table with 350 x 350 elements.
Info: Found 425 unique exclusion lists needing 7384 bytes
TCL: Minimizing for 2000 steps
ETITLE: TS BOND ANGLE DIHED IMPRP ELECT VDW BOUNDARY MISC KINETIC TOTAL TEMP POTENTIAL TOTAL3 TEMPAVG
ENERGY: 0 3883.2277 4092.7160 10477.5025 48.7244 -115.2183 72259045.4620 0.0000 23774.2640 0.0000 72301206.6782 0.0000 72301206.6782 72301206.6782 0.0000
ENERGY: 400 4454.2516 4923.9131 11002.2055 350.2862 -91.4220 -39.3972 0.0000 23999.6073 0.0000 44599.4446 0.0000 44599.4446 44599.4446 0.0000
ENERGY: 800 4151.3363 3805.6760 10370.0352 236.0717 -87.2666 -1878.4000 0.0000 24003.7637 0.0000 40601.2163 0.0000 40601.2163 40601.2163 0.0000
ENERGY: 1200 4111.4723 3679.2212 10200.1744 209.3090 -87.0471 -2036.7316 0.0000 23976.1106 0.0000 40052.5088 0.0000 40052.5088 40052.5088 0.0000
ENERGY: 1600 4107.5650 3633.7105 10105.4707 200.9486 -86.6066 -2175.1691 0.0000 23946.7564 0.0000 39732.6754 0.0000 39732.6754 39732.6754 0.0000
ENERGY: 2000 4099.0112 3613.1956 10059.6575 196.1246 -87.0568 -2265.8039 0.0000 23922.3869 0.0000 39537.5151 0.0000 39537.5151 39537.5151 0.0000
TCL: Running for 20000 steps
Info: Built with CUDA version 6050
Info: NAMD 2.12 for Linux-x86_64-multicore-CUDA
Info: Please visit http://www.ks.uiuc.edu/Research/namd/
Info: for updates, documentation, and support information.
Info: Please cite Phillips et al., J. Comp. Chem. 26:1781-1802 (2005)
Info: in all publications reporting results obtained with NAMD.
Info: Based on Charm++/Converse 60701 for multicore-linux64-iccstatic
Info: Built Wed Dec 21 11:34:15 CST 2016 by jim on harare.ks.uiuc.edu
Info: 1 NAMD  2.12  Linux-x86_64-multicore-CUDA  10    banshee  rtk
Info: Running on 10 processors, 1 nodes, 1 physical nodes.
Info: CPU topology information available.
Info: Charm++/Converse parallel runtime startup completed at 0.0479851 s
Info: 25.1016 MB of memory in use based on /proc/self/stat
Info: Configuration file is simulation_rnd2-step1.namd
Info: Working in the current directory /u/rtk/github/Namdinator
ETITLE: TS BOND ANGLE DIHED IMPRP ELECT VDW BOUNDARY MISC KINETIC TOTAL TEMP POTENTIAL TOTAL3 TEMPAVG
ENERGY: 2000 4099.0112 3613.1956 10059.6575 196.1246 -87.0568 -2265.8039 0.0000 23922.3869 15803.8003 55341.3154 301.9643 39537.5151 55301.8928 301.9643
ENERGY: 6000 9352.4557 10114.1834 11821.7157 745.2489 -90.6273 -1465.4729 0.0000 23848.2139 15540.0616 69865.7790 296.9250 54325.7174 70002.8423 297.6110
ENERGY: 10000 9304.1733 10184.1469 11740.5560 747.1891 -86.1826 -1491.7349 0.0000 23804.2467 15727.4375 69929.8319 300.5052 54202.3944 70076.8773 299.9840
ENERGY: 14000 9332.1317 10141.1408 11686.0128 753.3596 -85.3593 -1556.5880 0.0000 23788.7614 15614.5752 69674.0341 298.3488 54059.4589 69811.8909 297.7727
ENERGY: 18000 9357.8349 10068.8272 11722.5369 774.0550 -89.8527 -1556.2504 0.0000 23770.4633 15650.4974 69698.1117 299.0351 54047.6143 69830.8770 299.2609
ENERGY: 22000 9360.2089 10099.3299 11780.2746 744.0582 -89.3625 -1575.2269 0.0000 23746.4328 15678.9217 69744.6368 299.5782 54065.7151 69882.7346 299.4202
TCL: Suspending until startup complete.
Info: SIMULATION PARAMETERS:
Info: TIMESTEP               1
Info: NUMBER OF STEPS        0
Info: STEPS PER CYCLE        20
Info: FIRST LDB TIMESTEP     100
Info: LAST LDB TIMESTEP     -1
Info: HOM BACKGROUND SCALING 1
Info: MIN ATOMS PER PATCH    40
Info: INITIAL TEMPERATURE    300
Info: CENTER OF MASS MOVING INITIALLY? NO
Info: DIELECTRIC             80
Info: EXCLUDE                SCALED ONE-FOUR
Info: 1-4 ELECTROSTATICS SCALED BY 1
Info: MODIFIED 1-4 VDW PARAMETERS WILL BE USED
Info: DCD FILENAME           simulation_rnd2-step1.dcd
Info: DCD FREQUENCY          1000
Info: DCD FIRST STEP         1000
Info: NO EXTENDED SYSTEM TRAJECTORY OUTPUT
Info: NO VELOCITY DCD OUTPUT
Info: NO FORCE DCD OUTPUT
Info: OUTPUT FILENAME        simulation_rnd2-step1
Info: BINARY OUTPUT FILES WILL BE USED
Info: RESTART FILENAME       simulation_rnd2-step1.restart
Info: RESTART FREQUENCY      1000
Info: BINARY RESTART FILES WILL BE USED
Info: SWITCHING ACTIVE
Info: SWITCHING ON           9
Info: SWITCHING OFF          10
Info: PAIRLIST DISTANCE      11
Info: PAIRLIST SHRINK RATE   0.01
Info: PAIRLIST GROW RATE     0.01
Info: PAIRLIST TRIGGER       0.3
Info: PAIRLISTS PER CYCLE    2
Info: PAIRLISTS ENABLED
Info: MARGIN                 0
Info: HYDROGEN GROUP CUTOFF  2.5
Info: PATCH DIMENSION        13.5
Info: ENERGY OUTPUT STEPS    100
Info: CROSSTERM ENERGY INCLUDED IN DIHEDRAL
Info: TIMING OUTPUT STEPS    1000
Info: PRESSURE OUTPUT STEPS  100
Info: GRID FORCE ACTIVE
Info:  Please include this reference in published work using
Info:  the Gridforce module of NAMD: David Wells, Volha Abramkina,
Info:  and Aleksei Aksimentiev, J. Chem. Phys. 127:125101-10 (2007).
Info: MGRIDFORCE key 0
Info:            Potfile emd_6640-grid.dx
Info:            Scale 0.3 0.3 0.3
Info:            File last_frame_rsr-grid.pdb
Info:            Col O
Info:            ChargeCol B
Info:            VOffset 0 0 0
Info:            Continuous K1 FALSE
Info:            Continuous K2 FALSE
Info:            Continuous K3 FALSE
Info:            Volts FALSE
Info:            Gridforce-Lite FALSE
Info:            Gridforce-CheckSize TRUE
Info: LANGEVIN DYNAMICS ACTIVE
Info: LANGEVIN TEMPERATURE   300
Info: LANGEVIN USING BBK INTEGRATOR
Info: LANGEVIN DAMPING COEFFICIENT IS 5 INVERSE PS
Info: LANGEVIN DYNAMICS NOT APPLIED TO HYDROGENS
Info: USING VERLET I (r-RESPA) MTS SCHEME.
Info: C1 SPLITTING OF LONG RANGE ELECTROSTATICS
Info: PLACING ATOMS IN PATCHES BY HYDROGEN GROUPS
Info: RIGID BONDS TO HYDROGEN : WATER
Info:         ERROR TOLERANCE : 1e-08
Info:          MAX ITERATIONS : 100
Info: RIGID WATER USING SETTLE ALGORITHM
Info: NONBONDED FORCES EVALUATED EVERY 2 STEPS
Info: RANDOM NUMBER SEED     1516563018
Info: USE HYDROGEN BONDS?    NO
Info: COORDINATE PDB         last_frame_rsr_autopsf.pdb
Info: STRUCTURE FILE         last_frame_rsr_autopsf.psf
Info: PARAMETER file: CHARMM format!
Info: PARAMETERS             /opt/bioxray/programs/vmd-1.93/lib/plugins/noarch/tcl/readcharmmpar1.3/par_all36_lipid.prm
Info: PARAMETERS             /opt/bioxray/programs/vmd-1.93/lib/plugins/noarch/tcl/readcharmmpar1.3/par_all36_prot.prm
Info: PARAMETERS             /opt/bioxray/programs/vmd-1.93/lib/plugins/noarch/tcl/readcharmmpar1.3/par_all36_carb.prm
Info: PARAMETERS             /opt/bioxray/programs/vmd-1.93/lib/plugins/noarch/tcl/readcharmmpar1.3/toppar_water_ions_namd.str
Info: PARAMETERS             /opt/bioxray/programs/vmd-1.93/lib/plugins/noarch/tcl/readcharmmpar1.3/par_all36_cgenff.prm
Info: PARAMETERS             /opt/bioxray/programs/vmd-1.93/lib/plugins/noarch/tcl/readcharmmpar1.3/par_all36_na.prm
Info: USING ARITHMETIC MEAN TO COMBINE L-J SIGMA PARAMETERS
Info: 911 BONDS
Info: 2652 ANGLES
Info: 6440 DIHEDRAL
Info: 189 IMPROPER
Info: 6 CROSSTERM
Info: 350 VDW
Info: 6 VDW_PAIRS
Info: 0 NBTHOLE_PAIRS
Info: READING EXTRA BONDS FILE last_frame_rsr-extrabonds.txt
Info: READING EXTRA BONDS FILE last_frame_rsr-extrabonds-cis.txt
Info: READING EXTRA BONDS FILE last_frame_rsr-extrabonds-chi.txt
Info: READ 216 EXTRA BONDS
Info: READ 216 EXTRA ANGLES
Info: READ 2496 EXTRA DIHEDRALS
Info: READ 2360 EXTRA IMPROPERS
Info: STRUCTURE SUMMARY:
Info: 17558 ATOMS
Info: 18019 BONDS
Info: 32334 ANGLES
Info: 49690 DIHEDRALS
Info: 5339 IMPROPERS
Info: 1125 CROSSTERMS
Info: 0 EXCLUSIONS
Info: 0 RIGID BONDS
Info: 1 GRIDS ACTIVE
Info: 52674 DEGREES OF FREEDOM
Info: 8876 HYDROGEN GROUPS
Info: 4 ATOMS IN LARGEST HYDROGEN GROUP
Info: 8876 MIGRATION GROUPS
Info: 4 ATOMS IN LARGEST MIGRATION GROUP
Info: TOTAL MASS = 126087 amu
Info: TOTAL CHARGE = -32 e
Info: NONBONDED TABLE R-SQUARED SPACING: 0.0625
Info: NONBONDED TABLE SIZE: 705 POINTS
Info: ORIGINAL ATOMS MINMAX IS 98.693 90.758 80.818  163.524 172.142 238.882
Info: ADJUSTED ATOMS MINMAX IS 112.864 106.172 91.9226  151.975 156.503 221.216
Info: REMOVING COM VELOCITY -0.0256264 0.0882665 -0.0111651
Info: Updated CUDA force table with 4096 elements.
Info: Updated CUDA LJ table with 350 x 350 elements.
Info: Found 425 unique exclusion lists needing 7384 bytes
TCL: Minimizing for 2000 steps
ETITLE: TS BOND ANGLE DIHED IMPRP ELECT VDW BOUNDARY MISC KINETIC TOTAL TEMP POTENTIAL TOTAL3 TEMPAVG
ENERGY: 0 4320.3569 4348.8372 10979.2903 49.2698 -101.5565 2654.5627 0.0000 22868.5491 0.0000 45119.3095 0.0000 45119.3095 45119.3095 0.0000
ENERGY: 400 1666.3343 2497.1108 10395.8332 157.9982 -79.8239 -3409.1676 0.0000 23143.7701 0.0000 34372.0551 0.0000 34372.0551 34372.0551 0.0000
ENERGY: 800 1697.4934 2481.1642 10240.4980 170.7886 -78.5698 -3845.3539 0.0000 23236.2962 0.0000 33902.3167 0.0000 33902.3167 33902.3167 0.0000
ENERGY: 1200 1701.2832 2462.5445 10195.7063 170.0063 -78.7380 -3917.9716 0.0000 23251.6494 0.0000 33784.4802 0.0000 33784.4802 33784.4802 0.0000
ENERGY: 1600 1693.2830 2455.1457 10163.6462 169.3550 -78.8276 -3982.0239 0.0000 23268.4912 0.0000 33689.0697 0.0000 33689.0697 33689.0697 0.0000
ENERGY: 2000 1688.6914 2445.7319 10144.9607 169.6187 -78.9424 -4021.7062 0.0000 23280.9103 0.0000 33629.2644 0.0000 33629.2644 33629.2644 0.0000
TCL: Running for 20000 steps
Info: Built with CUDA version 6050
Info: NAMD 2.12 for Linux-x86_64-multicore-CUDA
Info: Please visit http://www.ks.uiuc.edu/Research/namd/
Info: for updates, documentation, and support information.
Info: Please cite Phillips et al., J. Comp. Chem. 26:1781-1802 (2005)
Info: in all publications reporting results obtained with NAMD.
Info: Based on Charm++/Converse 60701 for multicore-linux64-iccstatic
Info: Built Wed Dec 21 11:34:15 CST 2016 by jim on harare.ks.uiuc.edu
Info: 1 NAMD  2.12  Linux-x86_64-multicore-CUDA  10    banshee  rtk
Info: Running on 10 processors, 1 nodes, 1 physical nodes.
Info: CPU topology information available.
Info: Charm++/Converse parallel runtime startup completed at 0.071054 s
Info: 25.168 MB of memory in use based on /proc/self/stat
Info: Configuration file is simulation_rnd3-step1.namd
Info: Working in the current directory /u/rtk/github/Namdinator
ETITLE: TS BOND ANGLE DIHED IMPRP ELECT VDW BOUNDARY MISC KINETIC TOTAL TEMP POTENTIAL TOTAL3 TEMPAVG
ENERGY: 2000 1688.6914 2445.7319 10144.9607 169.6187 -78.9424 -4021.7062 0.0000 23280.9103 15547.9850 49177.2493 297.0764 33629.2644 49162.1374 297.0764
ENERGY: 6000 6891.1394 9228.9775 12073.8115 747.9739 -77.4710 -3041.9757 0.0000 23520.6061 15437.4378 64780.4995 294.9642 49343.0617 64900.7909 297.5749
ENERGY: 10000 7007.9211 9152.3927 12060.1324 734.8788 -73.0354 -3137.1553 0.0000 23516.6410 15390.9947 64652.7700 294.0768 49261.7753 64767.2684 296.6998
ENERGY: 14000 6928.5501 9039.5355 12164.1130 777.6256 -77.6393 -3134.0322 0.0000 23534.1826 15753.5417 64985.8768 301.0040 49232.3352 65114.4240 300.0854
ENERGY: 18000 6974.5765 9087.9103 12169.8336 776.3248 -75.4951 -3149.0240 0.0000 23537.7116 15609.7433 64931.5810 298.2565 49321.8377 65059.1890 299.8610
ENERGY: 22000 7003.7753 9038.0490 12084.4481 736.9284 -75.9271 -3145.1956 0.0000 23517.2520 15708.2625 64867.5926 300.1389 49159.3301 65002.0381 299.8484
TCL: Suspending until startup complete.
Info: SIMULATION PARAMETERS:
Info: TIMESTEP               1
Info: NUMBER OF STEPS        0
Info: STEPS PER CYCLE        20
Info: FIRST LDB TIMESTEP     100
Info: LAST LDB TIMESTEP     -1
Info: HOM BACKGROUND SCALING 1
Info: MIN ATOMS PER PATCH    40
Info: INITIAL TEMPERATURE    300
Info: CENTER OF MASS MOVING INITIALLY? NO
Info: DIELECTRIC             80
Info: EXCLUDE                SCALED ONE-FOUR
Info: 1-4 ELECTROSTATICS SCALED BY 1
Info: MODIFIED 1-4 VDW PARAMETERS WILL BE USED
Info: DCD FILENAME           simulation_rnd3-step1.dcd
Info: DCD FREQUENCY          1000
Info: DCD FIRST STEP         1000
Info: NO EXTENDED SYSTEM TRAJECTORY OUTPUT
Info: NO VELOCITY DCD OUTPUT
Info: NO FORCE DCD OUTPUT
Info: OUTPUT FILENAME        simulation_rnd3-step1
Info: BINARY OUTPUT FILES WILL BE USED
Info: RESTART FILENAME       simulation_rnd3-step1.restart
Info: RESTART FREQUENCY      1000
Info: BINARY RESTART FILES WILL BE USED
Info: SWITCHING ACTIVE
Info: SWITCHING ON           9
Info: SWITCHING OFF          10
Info: PAIRLIST DISTANCE      11
Info: PAIRLIST SHRINK RATE   0.01
Info: PAIRLIST GROW RATE     0.01
Info: PAIRLIST TRIGGER       0.3
Info: PAIRLISTS PER CYCLE    2
Info: PAIRLISTS ENABLED
Info: MARGIN                 0
Info: HYDROGEN GROUP CUTOFF  2.5
Info: PATCH DIMENSION        13.5
Info: ENERGY OUTPUT STEPS    100
Info: CROSSTERM ENERGY INCLUDED IN DIHEDRAL
Info: TIMING OUTPUT STEPS    1000
Info: PRESSURE OUTPUT STEPS  100
Info: GRID FORCE ACTIVE
Info:  Please include this reference in published work using
Info:  the Gridforce module of NAMD: David Wells, Volha Abramkina,
Info:  and Aleksei Aksimentiev, J. Chem. Phys. 127:125101-10 (2007).
Info: MGRIDFORCE key 0
Info:            Potfile emd_6640-grid.dx
Info:            Scale 0.3 0.3 0.3
Info:            File last_frame_rsr_rnd2-grid.pdb
Info:            Col O
Info:            ChargeCol B
Info:            VOffset 0 0 0
Info:            Continuous K1 FALSE
Info:            Continuous K2 FALSE
Info:            Continuous K3 FALSE
Info:            Volts FALSE
Info:            Gridforce-Lite FALSE
Info:            Gridforce-CheckSize TRUE
Info: LANGEVIN DYNAMICS ACTIVE
Info: LANGEVIN TEMPERATURE   300
Info: LANGEVIN USING BBK INTEGRATOR
Info: LANGEVIN DAMPING COEFFICIENT IS 5 INVERSE PS
Info: LANGEVIN DYNAMICS NOT APPLIED TO HYDROGENS
Info: USING VERLET I (r-RESPA) MTS SCHEME.
Info: C1 SPLITTING OF LONG RANGE ELECTROSTATICS
Info: PLACING ATOMS IN PATCHES BY HYDROGEN GROUPS
Info: RIGID BONDS TO HYDROGEN : WATER
Info:         ERROR TOLERANCE : 1e-08
Info:          MAX ITERATIONS : 100
Info: RIGID WATER USING SETTLE ALGORITHM
Info: NONBONDED FORCES EVALUATED EVERY 2 STEPS
Info: RANDOM NUMBER SEED     1516563387
Info: USE HYDROGEN BONDS?    NO
Info: COORDINATE PDB         last_frame_rsr_rnd2_autopsf.pdb
Info: STRUCTURE FILE         last_frame_rsr_rnd2_autopsf.psf
Info: PARAMETER file: CHARMM format!
Info: PARAMETERS             /opt/bioxray/programs/vmd-1.93/lib/plugins/noarch/tcl/readcharmmpar1.3/par_all36_lipid.prm
Info: PARAMETERS             /opt/bioxray/programs/vmd-1.93/lib/plugins/noarch/tcl/readcharmmpar1.3/par_all36_prot.prm
Info: PARAMETERS             /opt/bioxray/programs/vmd-1.93/lib/plugins/noarch/tcl/readcharmmpar1.3/par_all36_carb.prm
Info: PARAMETERS             /opt/bioxray/programs/vmd-1.93/lib/plugins/noarch/tcl/readcharmmpar1.3/toppar_water_ions_namd.str
Info: PARAMETERS             /opt/bioxray/programs/vmd-1.93/lib/plugins/noarch/tcl/readcharmmpar1.3/par_all36_cgenff.prm
Info: PARAMETERS             /opt/bioxray/programs/vmd-1.93/lib/plugins/noarch/tcl/readcharmmpar1.3/par_all36_na.prm
Info: USING ARITHMETIC MEAN TO COMBINE L-J SIGMA PARAMETERS
Info: SKIPPING rtf SECTION IN STREAM FILE
Info: 911 BONDS
Info: 2652 ANGLES
Info: 6440 DIHEDRAL
Info: 189 IMPROPER
Info: 6 CROSSTERM
Info: 350 VDW
Info: 6 VDW_PAIRS
Info: 0 NBTHOLE_PAIRS
Info: READING EXTRA BONDS FILE last_frame_rsr_rnd2-extrabonds.txt
Info: READING EXTRA BONDS FILE last_frame_rsr_rnd2-extrabonds-cis.txt
Info: READING EXTRA BONDS FILE last_frame_rsr_rnd2-extrabonds-chi.txt
Info: READ 192 EXTRA BONDS
Info: READ 192 EXTRA ANGLES
Info: READ 2393 EXTRA DIHEDRALS
Info: READ 2360 EXTRA IMPROPERS
Info: STRUCTURE SUMMARY:
Info: 17558 ATOMS
Info: 17995 BONDS
Info: 32310 ANGLES
Info: 49587 DIHEDRALS
Info: 5339 IMPROPERS
Info: 1125 CROSSTERMS
Info: 0 EXCLUSIONS
Info: 0 RIGID BONDS
Info: 1 GRIDS ACTIVE
Info: 52674 DEGREES OF FREEDOM
Info: 8876 HYDROGEN GROUPS
Info: 4 ATOMS IN LARGEST HYDROGEN GROUP
Info: 8876 MIGRATION GROUPS
Info: 4 ATOMS IN LARGEST MIGRATION GROUP
Info: TOTAL MASS = 126087 amu
Info: TOTAL CHARGE = -32 e
Info: NONBONDED TABLE R-SQUARED SPACING: 0.0625
Info: NONBONDED TABLE SIZE: 705 POINTS
Info: ORIGINAL ATOMS MINMAX IS 98.117 91.034 80.773  164.368 172.092 238.89
Info: ADJUSTED ATOMS MINMAX IS 113.026 106.124 91.713  152.139 156.526 221.363
Info: REMOVING COM VELOCITY -0.0365018 -0.0142157 0.0617783
Info: Updated CUDA force table with 4096 elements.
Info: Updated CUDA LJ table with 350 x 350 elements.
Info: Found 425 unique exclusion lists needing 7384 bytes
TCL: Minimizing for 2000 steps
ETITLE: TS BOND ANGLE DIHED IMPRP ELECT VDW BOUNDARY MISC KINETIC TOTAL TEMP POTENTIAL TOTAL3 TEMPAVG
ENERGY: 0 1203.9299 2802.6492 10758.8210 30.9151 -98.3035 877.7356 0.0000 22944.1312 0.0000 38519.8785 0.0000 38519.8785 38519.8785 0.0000
ENERGY: 400 601.1413 2225.4891 10164.5022 135.9513 -75.3906 -4299.6451 0.0000 23154.9941 0.0000 31907.0423 0.0000 31907.0423 31907.0423 0.0000
ENERGY: 800 600.6429 2188.9281 10049.2795 137.2618 -74.6079 -4555.6894 0.0000 23208.6170 0.0000 31554.4320 0.0000 31554.4320 31554.4320 0.0000
ENERGY: 1200 597.2338 2173.3196 10007.3961 140.1081 -75.0083 -4684.7832 0.0000 23230.9494 0.0000 31389.2156 0.0000 31389.2156 31389.2156 0.0000
ENERGY: 1600 595.6806 2169.4492 9986.5416 141.4915 -75.2531 -4743.7661 0.0000 23241.9032 0.0000 31316.0469 0.0000 31316.0469 31316.0469 0.0000
ENERGY: 2000 600.7932 2175.8090 9972.5220 145.2510 -75.1651 -4794.8517 0.0000 23249.5062 0.0000 31273.8645 0.0000 31273.8645 31273.8645 0.0000
TCL: Running for 20000 steps
ETITLE: TS BOND ANGLE DIHED IMPRP ELECT VDW BOUNDARY MISC KINETIC TOTAL TEMP POTENTIAL TOTAL3 TEMPAVG
ENERGY: 2000 600.7932 2175.8090 9972.5220 145.2510 -75.1651 -4794.8517 0.0000 23249.5062 15685.5248 46959.3893 299.7044 31273.8645 46955.6569 299.7044
ENERGY: 6000 5783.0358 8678.1827 11890.4097 704.9206 -71.4380 -3657.3546 0.0000 23499.6257 15365.7896 62193.1714 293.5952 46827.3819 62317.5733 294.7920
ENERGY: 10000 5772.4693 8867.4919 11927.0671 727.6545 -73.3968 -3703.0010 0.0000 23491.3075 15639.4725 62649.0650 298.8245 47009.5925 62774.5091 297.9369
ENERGY: 13900 5864.9882 8882.4525 11923.1770 697.9968 -66.5645 -3753.4122 0.0000 23498.3321 15794.1629 62841.1328 301.7802 47046.9699 62973.5724 301.6641
ENERGY: 18000 5940.2232 8797.3590 11946.8472 745.4913 -73.0958 -3713.0160 0.0000 23490.7036 15752.1173 62886.6299 300.9768 47134.5126 63001.0110 301.3494
ENERGY: 22000 5875.5947 8843.6717 12016.8136 743.4632 -72.9105 -3786.2065 0.0000 23490.4962 15699.5147 62810.4370 299.9717 47110.9223 62927.8938 299.4697
