Info: SIMULATION PARAMETERS:
Info: TIMESTEP               1
Info: NUMBER OF STEPS        0
Info: STEPS PER CYCLE        20
Info: FIRST LDB TIMESTEP     100
Info: LAST LDB TIMESTEP     -1
Info: HOM BACKGROUND SCALING 1
Info: MIN ATOMS PER PATCH    40
Info: INITIAL TEMPERATURE    300
Info: CENTER OF MASS MOVING INITIALLY? NO
Info: DIELECTRIC             80
Info: EXCLUDE                SCALED ONE-FOUR
Info: 1-4 ELECTROSTATICS SCALED BY 1
Info: MODIFIED 1-4 VDW PARAMETERS WILL BE USED
Info: DCD FILENAME           simulation-step1.dcd
Info: DCD FREQUENCY          1000
Info: DCD FIRST STEP         1000
Info: NO EXTENDED SYSTEM TRAJECTORY OUTPUT
Info: NO VELOCITY DCD OUTPUT
Info: NO FORCE DCD OUTPUT
Info: OUTPUT FILENAME        simulation-step1
Info: BINARY OUTPUT FILES WILL BE USED
Info: RESTART FILENAME       simulation-step1.restart
Info: RESTART FREQUENCY      1000
Info: BINARY RESTART FILES WILL BE USED
Info: SWITCHING ACTIVE
Info: SWITCHING ON           9
Info: SWITCHING OFF          10
Info: PAIRLIST DISTANCE      11
Info: PAIRLIST SHRINK RATE   0.01
Info: PAIRLIST GROW RATE     0.01
Info: PAIRLIST TRIGGER       0.3
Info: PAIRLISTS PER CYCLE    2
Info: PAIRLISTS ENABLED
Info: MARGIN                 0
Info: HYDROGEN GROUP CUTOFF  2.5
Info: PATCH DIMENSION        13.5
Info: ENERGY OUTPUT STEPS    100
Info: CROSSTERM ENERGY INCLUDED IN DIHEDRAL
Info: TIMING OUTPUT STEPS    1000
Info: PRESSURE OUTPUT STEPS  100
Info: GRID FORCE ACTIVE
Info:  Please include this reference in published work using
Info:  the Gridforce module of NAMD: David Wells, Volha Abramkina,
Info:  and Aleksei Aksimentiev, J. Chem. Phys. 127:125101-10 (2007).
Info: MGRIDFORCE key 0
Info:            Potfile emd_6640-grid.dx
Info:            Scale 0.3 0.3 0.3
Info:            File 3jd8_cryst_altered-grid.pdb
Info:            Col O
Info:            ChargeCol B
Info:            VOffset 0 0 0
Info:            Continuous K1 FALSE
Info:            Continuous K2 FALSE
Info:            Continuous K3 FALSE
Info:            Volts FALSE
Info:            Gridforce-Lite FALSE
Info:            Gridforce-CheckSize TRUE
Info: LANGEVIN DYNAMICS ACTIVE
Info: LANGEVIN TEMPERATURE   300
Info: LANGEVIN USING BBK INTEGRATOR
Info: LANGEVIN DAMPING COEFFICIENT IS 5 INVERSE PS
Info: LANGEVIN DYNAMICS NOT APPLIED TO HYDROGENS
Info: USING VERLET I (r-RESPA) MTS SCHEME.
Info: C1 SPLITTING OF LONG RANGE ELECTROSTATICS
Info: PLACING ATOMS IN PATCHES BY HYDROGEN GROUPS
Info: RIGID BONDS TO HYDROGEN : WATER
Info:         ERROR TOLERANCE : 1e-08
Info:          MAX ITERATIONS : 100
Info: RIGID WATER USING SETTLE ALGORITHM
Info: NONBONDED FORCES EVALUATED EVERY 2 STEPS
Info: RANDOM NUMBER SEED     1528373519
Info: USE HYDROGEN BONDS?    NO
Info: COORDINATE PDB         3jd8_cryst_altered_autopsf.pdb
Info: STRUCTURE FILE         3jd8_cryst_altered_autopsf.psf
Info: PARAMETER file: CHARMM format!
Info: PARAMETERS             /opt/bioxray/programs/vmd-1.93/lib/plugins/noarch/tcl/readcharmmpar1.3/par_all36_lipid.prm
Info: PARAMETERS             /opt/bioxray/programs/vmd-1.93/lib/plugins/noarch/tcl/readcharmmpar1.3/par_all36_prot.prm
Info: PARAMETERS             /opt/bioxray/programs/vmd-1.93/lib/plugins/noarch/tcl/readcharmmpar1.3/par_all36_carb.prm
Info: PARAMETERS             /opt/bioxray/programs/vmd-1.93/lib/plugins/noarch/tcl/readcharmmpar1.3/toppar_water_ions_namd.str
Info: PARAMETERS             /opt/bioxray/programs/vmd-1.93/lib/plugins/noarch/tcl/readcharmmpar1.3/par_all36_cgenff.prm
Info: PARAMETERS             /opt/bioxray/programs/vmd-1.93/lib/plugins/noarch/tcl/readcharmmpar1.3/par_all36_na.prm
Info: USING ARITHMETIC MEAN TO COMBINE L-J SIGMA PARAMETERS
Info: SKIPPING rtf SECTION IN STREAM FILE
Info: 911 BONDS
Info: 2652 ANGLES
Info: 6440 DIHEDRAL
Info: 189 IMPROPER
Info: 6 CROSSTERM
Info: 350 VDW
Info: 6 VDW_PAIRS
Info: 0 NBTHOLE_PAIRS
Info: READING EXTRA BONDS FILE 3jd8_cryst_altered-extrabonds.txt
Info: READING EXTRA BONDS FILE 3jd8_cryst_altered-extrabonds-cis.txt
Info: READING EXTRA BONDS FILE 3jd8_cryst_altered-extrabonds-chi.txt
Info: READ 369 EXTRA BONDS
Info: READ 369 EXTRA ANGLES
Info: READ 2553 EXTRA DIHEDRALS
Info: READ 2360 EXTRA IMPROPERS
Info: STRUCTURE SUMMARY:
Info: 17558 ATOMS
Info: 18172 BONDS
Info: 32487 ANGLES
Info: 49747 DIHEDRALS
Info: 5339 IMPROPERS
Info: 1125 CROSSTERMS
Info: 0 EXCLUSIONS
Info: 0 RIGID BONDS
Info: 1 GRIDS ACTIVE
Info: 52674 DEGREES OF FREEDOM
Info: 8876 HYDROGEN GROUPS
Info: 4 ATOMS IN LARGEST HYDROGEN GROUP
Info: 8876 MIGRATION GROUPS
Info: 4 ATOMS IN LARGEST MIGRATION GROUP
Info: TOTAL MASS = 126087 amu
Info: TOTAL CHARGE = -32 e
Info: ADDED 96217 IMPLICIT EXCLUSIONS
Info: NONBONDED TABLE R-SQUARED SPACING: 0.0625
Info: NONBONDED TABLE SIZE: 705 POINTS
Info: ORIGINAL ATOMS MINMAX IS 98.46 90.219 82.469  165.442 171.848 239.515
Info: ADJUSTED ATOMS MINMAX IS 113.21 106.558 92.6086  151.811 156.586 221.202
Info: Updated CUDA force table with 4096 elements.
Info: Updated CUDA LJ table with 350 x 350 elements.
Info: Found 425 unique exclusion lists needing 7384 bytes
TCL: Minimizing for 2000 steps
ETITLE: TS BOND ANGLE DIHED IMPRP ELECT VDW BOUNDARY MISC KINETIC TOTAL TEMP POTENTIAL TOTAL3 TEMPAVG
ENERGY: 0 3883.2277 4092.7160 10477.5025 48.7244 -115.2183 72259045.4620 0.0000 23774.2640 0.0000 72301206.6782 0.0000 72301206.6782 72301206.6782 0.0000
ENERGY: 400 4534.4992 5192.4135 11069.7420 363.1461 -92.3374 593.1661 0.0000 23981.2201 0.0000 45641.8496 0.0000 45641.8496 45641.8496 0.0000
ENERGY: 800 4168.7539 3925.6084 10485.2441 251.6185 -89.2902 -1393.9722 0.0000 24000.2600 0.0000 41348.2224 0.0000 41348.2224 41348.2224 0.0000
ENERGY: 1199 4189.2451 3751.8031 10327.8133 231.3624 -86.7375 -2022.4910 0.0000 23992.0799 0.0000 40383.0753 0.0000 40383.0753 40383.0753 0.0000
ENERGY: 1600 4113.6172 3664.3975 10162.3381 206.3570 -86.7071 -2100.3673 0.0000 23966.6530 0.0000 39926.2883 0.0000 39926.2883 39926.2883 0.0000
ENERGY: 2000 4103.4239 3633.3660 10105.4754 198.5593 -86.9714 -2176.1987 0.0000 23944.6807 0.0000 39722.3351 0.0000 39722.3351 39722.3351 0.0000
TCL: Running for 5000 steps
Info: Built with CUDA version 6050
Info: NAMD 2.12 for Linux-x86_64-multicore-CUDA
Info: Please visit http://www.ks.uiuc.edu/Research/namd/
Info: for updates, documentation, and support information.
Info: Please cite Phillips et al., J. Comp. Chem. 26:1781-1802 (2005)
Info: in all publications reporting results obtained with NAMD.
Info: Based on Charm++/Converse 60701 for multicore-linux64-iccstatic
Info: Built Wed Dec 21 11:34:15 CST 2016 by jim on harare.ks.uiuc.edu
Info: 1 NAMD  2.12  Linux-x86_64-multicore-CUDA  7    ghost  rtk
Info: Running on 7 processors, 1 nodes, 1 physical nodes.
Info: CPU topology information available.
Info: Charm++/Converse parallel runtime startup completed at 0.022938 s
Info: 22.4219 MB of memory in use based on /proc/self/stat
Info: Configuration file is simulation-step1.namd
Info: Working in the current directory /u/rtk/github/Namdinator
Info: SIMULATION PARAMETERS:
Info: TIMESTEP               1
Info: NUMBER OF STEPS        0
Info: STEPS PER CYCLE        20
Info: FIRST LDB TIMESTEP     100
Info: LAST LDB TIMESTEP     -1
Info: HOM BACKGROUND SCALING 1
Info: MIN ATOMS PER PATCH    40
Info: INITIAL TEMPERATURE    300
Info: CENTER OF MASS MOVING INITIALLY? NO
Info: DIELECTRIC             80
Info: EXCLUDE                SCALED ONE-FOUR
Info: 1-4 ELECTROSTATICS SCALED BY 1
Info: MODIFIED 1-4 VDW PARAMETERS WILL BE USED
Info: DCD FILENAME           simulation-step1.dcd
Info: DCD FREQUENCY          1000
Info: DCD FIRST STEP         1000
Info: NO EXTENDED SYSTEM TRAJECTORY OUTPUT
Info: NO VELOCITY DCD OUTPUT
Info: NO FORCE DCD OUTPUT
Info: OUTPUT FILENAME        simulation-step1
Info: BINARY OUTPUT FILES WILL BE USED
Info: RESTART FILENAME       simulation-step1.restart
Info: RESTART FREQUENCY      1000
Info: BINARY RESTART FILES WILL BE USED
Info: SWITCHING ACTIVE
Info: SWITCHING ON           9
Info: SWITCHING OFF          10
Info: PAIRLIST DISTANCE      11
Info: PAIRLIST SHRINK RATE   0.01
Info: PAIRLIST GROW RATE     0.01
Info: PAIRLIST TRIGGER       0.3
Info: PAIRLISTS PER CYCLE    2
Info: PAIRLISTS ENABLED
Info: MARGIN                 0
Info: HYDROGEN GROUP CUTOFF  2.5
Info: PATCH DIMENSION        13.5
Info: ENERGY OUTPUT STEPS    100
Info: CROSSTERM ENERGY INCLUDED IN DIHEDRAL
Info: TIMING OUTPUT STEPS    1000
Info: PRESSURE OUTPUT STEPS  100
Info: GRID FORCE ACTIVE
Info:  Please include this reference in published work using
Info:  the Gridforce module of NAMD: David Wells, Volha Abramkina,
Info:  and Aleksei Aksimentiev, J. Chem. Phys. 127:125101-10 (2007).
Info: MGRIDFORCE key 0
Info:            Potfile emd_6640-grid.dx
Info:            Scale 0.3 0.3 0.3
Info:            File 3jd8_cryst_altered-grid.pdb
Info:            Col O
Info:            ChargeCol B
Info:            VOffset 0 0 0
Info:            Continuous K1 FALSE
Info:            Continuous K2 FALSE
Info:            Continuous K3 FALSE
Info:            Volts FALSE
Info:            Gridforce-Lite FALSE
Info:            Gridforce-CheckSize TRUE
Info: LANGEVIN DYNAMICS ACTIVE
Info: LANGEVIN TEMPERATURE   300
Info: LANGEVIN USING BBK INTEGRATOR
Info: LANGEVIN DAMPING COEFFICIENT IS 5 INVERSE PS
Info: LANGEVIN DYNAMICS NOT APPLIED TO HYDROGENS
Info: USING VERLET I (r-RESPA) MTS SCHEME.
Info: C1 SPLITTING OF LONG RANGE ELECTROSTATICS
Info: PLACING ATOMS IN PATCHES BY HYDROGEN GROUPS
Info: RIGID BONDS TO HYDROGEN : WATER
Info:         ERROR TOLERANCE : 1e-08
Info:          MAX ITERATIONS : 100
Info: RIGID WATER USING SETTLE ALGORITHM
Info: NONBONDED FORCES EVALUATED EVERY 2 STEPS
Info: RANDOM NUMBER SEED     1528374316
Info: USE HYDROGEN BONDS?    NO
Info: COORDINATE PDB         3jd8_cryst_altered_autopsf.pdb
Info: STRUCTURE FILE         3jd8_cryst_altered_autopsf.psf
Info: PARAMETER file: CHARMM format!
Info: PARAMETERS             /opt/bioxray/programs/vmd-1.93/lib/plugins/noarch/tcl/readcharmmpar1.3/par_all36_lipid.prm
Info: PARAMETERS             /opt/bioxray/programs/vmd-1.93/lib/plugins/noarch/tcl/readcharmmpar1.3/par_all36_prot.prm
Info: PARAMETERS             /opt/bioxray/programs/vmd-1.93/lib/plugins/noarch/tcl/readcharmmpar1.3/par_all36_carb.prm
Info: PARAMETERS             /opt/bioxray/programs/vmd-1.93/lib/plugins/noarch/tcl/readcharmmpar1.3/toppar_water_ions_namd.str
Info: PARAMETERS             /opt/bioxray/programs/vmd-1.93/lib/plugins/noarch/tcl/readcharmmpar1.3/par_all36_cgenff.prm
Info: PARAMETERS             /opt/bioxray/programs/vmd-1.93/lib/plugins/noarch/tcl/readcharmmpar1.3/par_all36_na.prm
Info: USING ARITHMETIC MEAN TO COMBINE L-J SIGMA PARAMETERS
Info: SKIPPING rtf SECTION IN STREAM FILE
Info: 911 BONDS
Info: 2652 ANGLES
Info: 6440 DIHEDRAL
Info: 189 IMPROPER
Info: 6 CROSSTERM
Info: 350 VDW
Info: 6 VDW_PAIRS
Info: 0 NBTHOLE_PAIRS
Info: READING EXTRA BONDS FILE 3jd8_cryst_altered-extrabonds.txt
Info: READING EXTRA BONDS FILE 3jd8_cryst_altered-extrabonds-cis.txt
Info: READING EXTRA BONDS FILE 3jd8_cryst_altered-extrabonds-chi.txt
Info: READ 369 EXTRA BONDS
Info: READ 369 EXTRA ANGLES
Info: READ 2553 EXTRA DIHEDRALS
Info: READ 2360 EXTRA IMPROPERS
Info: STRUCTURE SUMMARY:
Info: 17558 ATOMS
Info: 18172 BONDS
Info: 32487 ANGLES
Info: 49747 DIHEDRALS
Info: 5339 IMPROPERS
Info: 1125 CROSSTERMS
Info: 0 EXCLUSIONS
Info: 0 RIGID BONDS
Info: 1 GRIDS ACTIVE
Info: 52674 DEGREES OF FREEDOM
Info: 8876 HYDROGEN GROUPS
Info: 4 ATOMS IN LARGEST HYDROGEN GROUP
Info: 8876 MIGRATION GROUPS
Info: 4 ATOMS IN LARGEST MIGRATION GROUP
Info: TOTAL MASS = 126087 amu
Info: TOTAL CHARGE = -32 e
Info: ADDED 96217 IMPLICIT EXCLUSIONS
Info: NONBONDED TABLE R-SQUARED SPACING: 0.0625
Info: NONBONDED TABLE SIZE: 705 POINTS
Info: ORIGINAL ATOMS MINMAX IS 98.46 90.219 82.469  165.442 171.848 239.515
Info: ADJUSTED ATOMS MINMAX IS 113.21 106.558 92.6086  151.811 156.586 221.202
Info: REMOVING COM VELOCITY -0.0240018 -0.0409354 0.0245126
Info: Updated CUDA force table with 4096 elements.
Info: Updated CUDA LJ table with 350 x 350 elements.
Info: Found 425 unique exclusion lists needing 7384 bytes
ETITLE: TS BOND ANGLE DIHED IMPRP ELECT VDW BOUNDARY MISC KINETIC TOTAL TEMP POTENTIAL TOTAL3 TEMPAVG
ENERGY: 2000 4103.4239 3633.3660 10105.4754 198.5593 -86.9714 -2176.1987 0.0000 23944.6807 15689.4764 55411.8115 299.7799 39722.3351 55372.9114 299.7799
ENERGY: 3000 8815.2348 9582.2905 11854.1905 723.0984 -85.5302 -1343.7565 0.0000 23964.5623 13905.5144 67415.6042 265.6936 53510.0898 67514.8236 267.8849
ENERGY: 4000 9024.2631 9845.6095 11934.6608 732.3802 -85.2829 -1369.2375 0.0000 23895.8394 15029.0000 69007.2325 287.1601 53978.2326 69140.7025 287.6785
ENERGY: 5000 9259.6754 10138.6494 11811.5612 782.5945 -84.0176 -1418.7000 0.0000 23874.7506 15350.4665 69714.9802 293.3024 54364.5137 69837.7558 294.9479
ENERGY: 6000 9370.7851 10081.9054 11774.5569 764.8575 -89.9249 -1429.9474 0.0000 23889.4428 15440.2350 69801.9104 295.0176 54361.6754 69926.0959 296.7676
ENERGY: 7000 9318.2130 9868.9365 11780.2481 744.8177 -87.4474 -1491.8060 0.0000 23873.1922 15690.9176 69697.0718 299.8075 54006.1542 69836.1500 296.4948
TCL: Minimizing for 500 steps
ETITLE: TS BOND ANGLE DIHED IMPRP ELECT VDW BOUNDARY MISC KINETIC TOTAL TEMP POTENTIAL TOTAL3 TEMPAVG
ENERGY: 0 3883.2277 4092.7160 10477.5025 48.7244 -115.2183 72259045.4620 0.0000 23774.2640 0.0000 72301206.6782 0.0000 72301206.6782 72301206.6782 0.0000
ENERGY: 100 6742.6309 10906.3959 12088.4989 596.0534 -102.6562 12325.9547 0.0000 23816.5849 0.0000 66373.4625 0.0000 66373.4625 66373.4625 0.0000
ENERGY: 200 5183.2998 7166.1382 11661.0037 451.8475 -95.4698 4579.0839 0.0000 23900.3567 0.0000 52846.2600 0.0000 52846.2600 52846.2600 0.0000
ENERGY: 300 4711.1302 5720.0310 11130.3207 334.4105 -95.2941 2181.5031 0.0000 23947.1103 0.0000 47929.2116 0.0000 47929.2116 47929.2116 0.0000
ENERGY: 400 4543.1405 5193.8587 11010.6750 330.9015 -92.9038 819.0896 0.0000 23974.6836 0.0000 45779.4451 0.0000 45779.4451 45779.4451 0.0000
ENERGY: 500 4320.0421 4466.9322 10856.7787 318.1438 -89.5293 -915.2925 0.0000 24028.4731 0.0000 42985.5480 0.0000 42985.5480 42985.5480 0.0000
TCL: Running for 5000 steps
Info: Built with CUDA version 6050
Info: NAMD 2.12 for Linux-x86_64-multicore-CUDA
Info: Please visit http://www.ks.uiuc.edu/Research/namd/
Info: for updates, documentation, and support information.
Info: Please cite Phillips et al., J. Comp. Chem. 26:1781-1802 (2005)
Info: in all publications reporting results obtained with NAMD.
Info: Based on Charm++/Converse 60701 for multicore-linux64-iccstatic
Info: Built Wed Dec 21 11:34:15 CST 2016 by jim on harare.ks.uiuc.edu
Info: 1 NAMD  2.12  Linux-x86_64-multicore-CUDA  7    ghost  rtk
Info: Running on 7 processors, 1 nodes, 1 physical nodes.
Info: CPU topology information available.
Info: Charm++/Converse parallel runtime startup completed at 0.0230131 s
Info: 22.2109 MB of memory in use based on /proc/self/stat
Info: Configuration file is simulation-step1.namd
Info: Working in the current directory /u/rtk/github/Namdinator
Info: SIMULATION PARAMETERS:
Info: TIMESTEP               1
Info: NUMBER OF STEPS        0
Info: STEPS PER CYCLE        20
Info: FIRST LDB TIMESTEP     100
Info: LAST LDB TIMESTEP     -1
Info: HOM BACKGROUND SCALING 1
Info: MIN ATOMS PER PATCH    40
Info: INITIAL TEMPERATURE    300
Info: CENTER OF MASS MOVING INITIALLY? NO
Info: DIELECTRIC             80
Info: EXCLUDE                SCALED ONE-FOUR
Info: 1-4 ELECTROSTATICS SCALED BY 1
Info: MODIFIED 1-4 VDW PARAMETERS WILL BE USED
Info: DCD FILENAME           simulation-step1.dcd
Info: DCD FREQUENCY          1000
Info: DCD FIRST STEP         1000
Info: NO EXTENDED SYSTEM TRAJECTORY OUTPUT
Info: NO VELOCITY DCD OUTPUT
Info: NO FORCE DCD OUTPUT
Info: OUTPUT FILENAME        simulation-step1
Info: BINARY OUTPUT FILES WILL BE USED
Info: RESTART FILENAME       simulation-step1.restart
Info: RESTART FREQUENCY      1000
Info: BINARY RESTART FILES WILL BE USED
Info: SWITCHING ACTIVE
Info: SWITCHING ON           9
Info: SWITCHING OFF          10
Info: PAIRLIST DISTANCE      11
Info: PAIRLIST SHRINK RATE   0.01
Info: PAIRLIST GROW RATE     0.01
Info: PAIRLIST TRIGGER       0.3
Info: PAIRLISTS PER CYCLE    2
Info: PAIRLISTS ENABLED
Info: MARGIN                 0
Info: HYDROGEN GROUP CUTOFF  2.5
Info: PATCH DIMENSION        13.5
Info: ENERGY OUTPUT STEPS    100
Info: CROSSTERM ENERGY INCLUDED IN DIHEDRAL
Info: TIMING OUTPUT STEPS    1000
Info: PRESSURE OUTPUT STEPS  100
Info: GRID FORCE ACTIVE
Info:  Please include this reference in published work using
Info:  the Gridforce module of NAMD: David Wells, Volha Abramkina,
Info:  and Aleksei Aksimentiev, J. Chem. Phys. 127:125101-10 (2007).
Info: MGRIDFORCE key 0
Info:            Potfile emd_6640-grid.dx
Info:            Scale 0.3 0.3 0.3
Info:            File 3jd8_cryst_altered-grid.pdb
Info:            Col O
Info:            ChargeCol B
Info:            VOffset 0 0 0
Info:            Continuous K1 FALSE
Info:            Continuous K2 FALSE
Info:            Continuous K3 FALSE
Info:            Volts FALSE
Info:            Gridforce-Lite FALSE
Info:            Gridforce-CheckSize TRUE
Info: LANGEVIN DYNAMICS ACTIVE
Info: LANGEVIN TEMPERATURE   300
Info: LANGEVIN USING BBK INTEGRATOR
Info: LANGEVIN DAMPING COEFFICIENT IS 5 INVERSE PS
Info: LANGEVIN DYNAMICS NOT APPLIED TO HYDROGENS
Info: USING VERLET I (r-RESPA) MTS SCHEME.
Info: C1 SPLITTING OF LONG RANGE ELECTROSTATICS
Info: PLACING ATOMS IN PATCHES BY HYDROGEN GROUPS
Info: RIGID BONDS TO HYDROGEN : WATER
Info:         ERROR TOLERANCE : 1e-08
Info:          MAX ITERATIONS : 100
Info: RIGID WATER USING SETTLE ALGORITHM
Info: NONBONDED FORCES EVALUATED EVERY 2 STEPS
Info: RANDOM NUMBER SEED     1528374909
Info: USE HYDROGEN BONDS?    NO
Info: COORDINATE PDB         3jd8_cryst_altered_autopsf.pdb
Info: STRUCTURE FILE         3jd8_cryst_altered_autopsf.psf
Info: PARAMETER file: CHARMM format!
Info: PARAMETERS             /opt/bioxray/programs/vmd-1.93/lib/plugins/noarch/tcl/readcharmmpar1.3/par_all36_lipid.prm
Info: PARAMETERS             /opt/bioxray/programs/vmd-1.93/lib/plugins/noarch/tcl/readcharmmpar1.3/par_all36_prot.prm
Info: PARAMETERS             /opt/bioxray/programs/vmd-1.93/lib/plugins/noarch/tcl/readcharmmpar1.3/par_all36_carb.prm
Info: PARAMETERS             /opt/bioxray/programs/vmd-1.93/lib/plugins/noarch/tcl/readcharmmpar1.3/toppar_water_ions_namd.str
Info: PARAMETERS             /opt/bioxray/programs/vmd-1.93/lib/plugins/noarch/tcl/readcharmmpar1.3/par_all36_cgenff.prm
Info: PARAMETERS             /opt/bioxray/programs/vmd-1.93/lib/plugins/noarch/tcl/readcharmmpar1.3/par_all36_na.prm
Info: USING ARITHMETIC MEAN TO COMBINE L-J SIGMA PARAMETERS
Info: 911 BONDS
Info: 2652 ANGLES
Info: 6440 DIHEDRAL
Info: 189 IMPROPER
Info: 6 CROSSTERM
Info: 350 VDW
Info: 6 VDW_PAIRS
Info: 0 NBTHOLE_PAIRS
Info: READING EXTRA BONDS FILE 3jd8_cryst_altered-extrabonds.txt
Info: READING EXTRA BONDS FILE 3jd8_cryst_altered-extrabonds-cis.txt
Info: READING EXTRA BONDS FILE 3jd8_cryst_altered-extrabonds-chi.txt
Info: READ 369 EXTRA BONDS
Info: READ 369 EXTRA ANGLES
Info: READ 2553 EXTRA DIHEDRALS
Info: READ 2360 EXTRA IMPROPERS
Info: STRUCTURE SUMMARY:
Info: 17558 ATOMS
Info: 18172 BONDS
Info: 32487 ANGLES
Info: 49747 DIHEDRALS
Info: 5339 IMPROPERS
Info: 1125 CROSSTERMS
Info: 0 EXCLUSIONS
Info: 0 RIGID BONDS
Info: 1 GRIDS ACTIVE
Info: 52674 DEGREES OF FREEDOM
Info: 8876 HYDROGEN GROUPS
Info: 4 ATOMS IN LARGEST HYDROGEN GROUP
Info: 8876 MIGRATION GROUPS
Info: 4 ATOMS IN LARGEST MIGRATION GROUP
Info: TOTAL MASS = 126087 amu
Info: TOTAL CHARGE = -32 e
Info: ADDED 96217 IMPLICIT EXCLUSIONS
Info: NONBONDED TABLE R-SQUARED SPACING: 0.0625
Info: NONBONDED TABLE SIZE: 705 POINTS
Info: ORIGINAL ATOMS MINMAX IS 98.46 90.219 82.469  165.442 171.848 239.515
Info: ADJUSTED ATOMS MINMAX IS 113.21 106.558 92.6086  151.811 156.586 221.202
Info: REMOVING COM VELOCITY -0.0620228 0.0561763 0.0162504
Info: Updated CUDA force table with 4096 elements.
Info: Updated CUDA LJ table with 350 x 350 elements.
Info: Found 425 unique exclusion lists needing 7384 bytes
ETITLE: TS BOND ANGLE DIHED IMPRP ELECT VDW BOUNDARY MISC KINETIC TOTAL TEMP POTENTIAL TOTAL3 TEMPAVG
ENERGY: 500 4320.0421 4466.9322 10856.7787 318.1438 -89.5293 -915.2925 0.0000 24028.4731 15853.0508 58838.5988 302.9053 42985.5480 58792.0673 302.9053
ENERGY: 1500 8745.2511 9518.3226 11906.3394 717.7540 -86.0808 -1219.9694 0.0000 24011.6867 14332.3214 67925.6249 273.8487 53593.3035 68047.1566 271.6348
ENERGY: 2500 9143.6796 9973.6374 11862.7253 748.3219 -85.5204 -1396.3163 0.0000 23952.7368 14994.1231 69193.3873 286.4938 54199.2642 69324.3070 288.6075
ENERGY: 3500 9134.7655 9971.1404 11897.7898 736.5535 -87.1712 -1321.8425 0.0000 23899.4603 15420.3232 69651.0190 294.6372 54230.6958 69779.7255 294.3376
ENERGY: 4500 9379.6182 10064.8761 11818.6622 758.0503 -87.4056 -1414.1529 0.0000 23885.7929 15496.7425 69902.1836 296.0973 54405.4411 70042.9675 297.4465
ENERGY: 5500 9300.5461 10134.1957 11778.0372 757.9110 -91.7646 -1455.1754 0.0000 23899.4038 15550.4133 69873.5671 297.1228 54323.1538 70015.0397 297.5388
TCL: Minimizing for 500 steps
ETITLE: TS BOND ANGLE DIHED IMPRP ELECT VDW BOUNDARY MISC KINETIC TOTAL TEMP POTENTIAL TOTAL3 TEMPAVG
ENERGY: 0 3883.2277 4092.7160 10477.5025 48.7244 -115.2183 72259045.4620 0.0000 23774.2640 0.0000 72301206.6782 0.0000 72301206.6782 72301206.6782 0.0000
ENERGY: 100 6815.8680 11039.4087 12162.3476 606.1900 -103.0255 12725.0150 0.0000 23814.5434 0.0000 67060.3473 0.0000 67060.3473 67060.3473 0.0000
ENERGY: 200 5180.2294 7150.6629 11706.2459 465.4759 -95.4211 4479.9772 0.0000 23901.9309 0.0000 52789.1011 0.0000 52789.1011 52789.1011 0.0000
ENERGY: 300 4698.3575 5666.4557 11141.9444 339.7728 -95.2404 2139.3174 0.0000 23947.3489 0.0000 47837.9563 0.0000 47837.9563 47837.9563 0.0000
ENERGY: 400 4575.6574 5182.8777 11027.5033 342.2664 -92.5798 689.3514 0.0000 23978.0142 0.0000 45703.0906 0.0000 45703.0906 45703.0906 0.0000
ENERGY: 500 4297.5181 4498.4139 10807.0172 295.8068 -91.2776 -338.4174 0.0000 24001.8292 0.0000 43470.8902 0.0000 43470.8902 43470.8902 0.0000
TCL: Running for 5000 steps
Info: Built with CUDA version 6050
Info: NAMD 2.12 for Linux-x86_64-multicore-CUDA
Info: Please visit http://www.ks.uiuc.edu/Research/namd/
Info: for updates, documentation, and support information.
Info: Please cite Phillips et al., J. Comp. Chem. 26:1781-1802 (2005)
Info: in all publications reporting results obtained with NAMD.
Info: Based on Charm++/Converse 60701 for multicore-linux64-iccstatic
Info: Built Wed Dec 21 11:34:15 CST 2016 by jim on harare.ks.uiuc.edu
Info: 1 NAMD  2.12  Linux-x86_64-multicore-CUDA  12    banshee  rtk
Info: Running on 12 processors, 1 nodes, 1 physical nodes.
Info: CPU topology information available.
Info: Charm++/Converse parallel runtime startup completed at 0.0648 s
Info: 23.4609 MB of memory in use based on /proc/self/stat
Info: Configuration file is simulation-step1.namd
Info: Working in the current directory /u/rtk/github/Namdinator
ETITLE: TS BOND ANGLE DIHED IMPRP ELECT VDW BOUNDARY MISC KINETIC TOTAL TEMP POTENTIAL TOTAL3 TEMPAVG
ENERGY: 500 4297.5181 4498.4139 10807.0172 295.8068 -91.2776 -338.4174 0.0000 24001.8292 15560.2899 59031.1801 297.3115 43470.8902 58981.2931 297.3115
ENERGY: 1500 8728.6770 9540.0281 11850.6689 716.8814 -83.9031 -1223.3624 0.0000 24015.9503 14276.8579 67821.7981 272.7889 53544.9402 67936.7558 271.0291
ENERGY: 2500 9025.5706 10038.2768 11907.9964 725.2694 -86.0525 -1392.8076 0.0000 23950.7585 15097.6330 69266.6448 288.4715 54169.0118 69403.3253 288.3752
ENERGY: 3500 9207.8318 10040.0234 11922.6562 730.5159 -83.3563 -1342.8617 0.0000 23890.6554 15451.7775 69817.2422 295.2382 54365.4648 69949.3638 294.8692
ENERGY: 4500 9344.1072 10136.4524 11831.7627 750.1159 -84.9091 -1519.3347 0.0000 23862.6534 15545.8671 69866.7149 297.0360 54320.8478 69989.9613 296.3989
ENERGY: 5500 9393.0600 10000.1595 11820.6251 742.1066 -87.2900 -1475.9997 0.0000 23857.9818 15508.8736 69759.5168 296.3291 54250.6432 69894.5811 297.1085
TCL: Suspending until startup complete.
Info: SIMULATION PARAMETERS:
Info: TIMESTEP               1
Info: NUMBER OF STEPS        0
Info: STEPS PER CYCLE        20
Info: FIRST LDB TIMESTEP     100
Info: LAST LDB TIMESTEP     -1
Info: HOM BACKGROUND SCALING 1
Info: MIN ATOMS PER PATCH    40
Info: INITIAL TEMPERATURE    300
Info: CENTER OF MASS MOVING INITIALLY? NO
Info: DIELECTRIC             80
Info: EXCLUDE                SCALED ONE-FOUR
Info: 1-4 ELECTROSTATICS SCALED BY 1
Info: MODIFIED 1-4 VDW PARAMETERS WILL BE USED
Info: DCD FILENAME           simulation-step1.dcd
Info: DCD FREQUENCY          1000
Info: DCD FIRST STEP         1000
Info: NO EXTENDED SYSTEM TRAJECTORY OUTPUT
Info: NO VELOCITY DCD OUTPUT
Info: NO FORCE DCD OUTPUT
Info: OUTPUT FILENAME        simulation-step1
Info: BINARY OUTPUT FILES WILL BE USED
Info: RESTART FILENAME       simulation-step1.restart
Info: RESTART FREQUENCY      1000
Info: BINARY RESTART FILES WILL BE USED
Info: SWITCHING ACTIVE
Info: SWITCHING ON           9
Info: SWITCHING OFF          10
Info: PAIRLIST DISTANCE      11
Info: PAIRLIST SHRINK RATE   0.01
Info: PAIRLIST GROW RATE     0.01
Info: PAIRLIST TRIGGER       0.3
Info: PAIRLISTS PER CYCLE    2
Info: PAIRLISTS ENABLED
Info: MARGIN                 0
Info: HYDROGEN GROUP CUTOFF  2.5
Info: PATCH DIMENSION        13.5
Info: ENERGY OUTPUT STEPS    100
Info: CROSSTERM ENERGY INCLUDED IN DIHEDRAL
Info: TIMING OUTPUT STEPS    1000
Info: PRESSURE OUTPUT STEPS  100
Info: GRID FORCE ACTIVE
Info:  Please include this reference in published work using
Info:  the Gridforce module of NAMD: David Wells, Volha Abramkina,
Info:  and Aleksei Aksimentiev, J. Chem. Phys. 127:125101-10 (2007).
Info: MGRIDFORCE key 0
Info:            Potfile emd_6640-grid.dx
Info:            Scale 0.3 0.3 0.3
Info:            File 3jd8_cryst_altered-grid.pdb
Info:            Col O
Info:            ChargeCol B
Info:            VOffset 0 0 0
Info:            Continuous K1 FALSE
Info:            Continuous K2 FALSE
Info:            Continuous K3 FALSE
Info:            Volts FALSE
Info:            Gridforce-Lite FALSE
Info:            Gridforce-CheckSize TRUE
Info: LANGEVIN DYNAMICS ACTIVE
Info: LANGEVIN TEMPERATURE   300
Info: LANGEVIN USING BBK INTEGRATOR
Info: LANGEVIN DAMPING COEFFICIENT IS 5 INVERSE PS
Info: LANGEVIN DYNAMICS NOT APPLIED TO HYDROGENS
Info: USING VERLET I (r-RESPA) MTS SCHEME.
Info: C1 SPLITTING OF LONG RANGE ELECTROSTATICS
Info: PLACING ATOMS IN PATCHES BY HYDROGEN GROUPS
Info: RIGID BONDS TO HYDROGEN : WATER
Info:         ERROR TOLERANCE : 1e-08
Info:          MAX ITERATIONS : 100
Info: RIGID WATER USING SETTLE ALGORITHM
Info: NONBONDED FORCES EVALUATED EVERY 2 STEPS
Info: RANDOM NUMBER SEED     1528376404
Info: USE HYDROGEN BONDS?    NO
Info: COORDINATE PDB         3jd8_cryst_altered_autopsf.pdb
Info: STRUCTURE FILE         3jd8_cryst_altered_autopsf.psf
Info: PARAMETER file: CHARMM format!
Info: PARAMETERS             /opt/bioxray/programs/vmd-1.93/lib/plugins/noarch/tcl/readcharmmpar1.3/par_all36_lipid.prm
Info: PARAMETERS             /opt/bioxray/programs/vmd-1.93/lib/plugins/noarch/tcl/readcharmmpar1.3/par_all36_prot.prm
Info: PARAMETERS             /opt/bioxray/programs/vmd-1.93/lib/plugins/noarch/tcl/readcharmmpar1.3/par_all36_carb.prm
Info: PARAMETERS             /opt/bioxray/programs/vmd-1.93/lib/plugins/noarch/tcl/readcharmmpar1.3/toppar_water_ions_namd.str
Info: PARAMETERS             /opt/bioxray/programs/vmd-1.93/lib/plugins/noarch/tcl/readcharmmpar1.3/par_all36_cgenff.prm
Info: PARAMETERS             /opt/bioxray/programs/vmd-1.93/lib/plugins/noarch/tcl/readcharmmpar1.3/par_all36_na.prm
Info: USING ARITHMETIC MEAN TO COMBINE L-J SIGMA PARAMETERS
Info: 911 BONDS
Info: 2652 ANGLES
Info: 6440 DIHEDRAL
Info: 189 IMPROPER
Info: 6 CROSSTERM
Info: 350 VDW
Info: 6 VDW_PAIRS
Info: 0 NBTHOLE_PAIRS
Info: READING EXTRA BONDS FILE 3jd8_cryst_altered-extrabonds.txt
Info: READING EXTRA BONDS FILE 3jd8_cryst_altered-extrabonds-cis.txt
Info: READING EXTRA BONDS FILE 3jd8_cryst_altered-extrabonds-chi.txt
Info: READ 369 EXTRA BONDS
Info: READ 369 EXTRA ANGLES
Info: READ 2553 EXTRA DIHEDRALS
Info: READ 2360 EXTRA IMPROPERS
Info: STRUCTURE SUMMARY:
Info: 17558 ATOMS
Info: 18172 BONDS
Info: 32487 ANGLES
Info: 49747 DIHEDRALS
Info: 5339 IMPROPERS
Info: 1125 CROSSTERMS
Info: 0 EXCLUSIONS
Info: 0 RIGID BONDS
Info: 1 GRIDS ACTIVE
Info: 52674 DEGREES OF FREEDOM
Info: 8876 HYDROGEN GROUPS
Info: 4 ATOMS IN LARGEST HYDROGEN GROUP
Info: 8876 MIGRATION GROUPS
Info: 4 ATOMS IN LARGEST MIGRATION GROUP
Info: TOTAL MASS = 126087 amu
Info: TOTAL CHARGE = -32 e
Info: ADDED 96217 IMPLICIT EXCLUSIONS
Info: NONBONDED TABLE R-SQUARED SPACING: 0.0625
Info: NONBONDED TABLE SIZE: 705 POINTS
Info: ORIGINAL ATOMS MINMAX IS 98.46 90.219 82.469  165.442 171.848 239.515
Info: ADJUSTED ATOMS MINMAX IS 113.21 106.558 92.6086  151.811 156.586 221.202
Info: REMOVING COM VELOCITY 0.0438334 0.0393055 -0.0430102
Info: Updated CUDA force table with 4096 elements.
Info: Updated CUDA LJ table with 350 x 350 elements.
Info: Found 425 unique exclusion lists needing 7384 bytes
TCL: Minimizing for 500 steps
ETITLE: TS BOND ANGLE DIHED IMPRP ELECT VDW BOUNDARY MISC KINETIC TOTAL TEMP POTENTIAL TOTAL3 TEMPAVG
ENERGY: 0 3883.2277 4092.7160 10477.5025 48.7244 -115.2183 72259045.4620 0.0000 23774.2640 0.0000 72301206.6782 0.0000 72301206.6782 72301206.6782 0.0000
ENERGY: 100 6815.5055 11038.9210 12163.7742 606.3239 -103.0244 12723.5370 0.0000 23814.5508 0.0000 67059.5879 0.0000 67059.5879 67059.5879 0.0000
ENERGY: 200 5231.3449 7156.9288 11724.7766 464.2003 -95.3612 4423.6391 0.0000 23903.0475 0.0000 52808.5761 0.0000 52808.5761 52808.5761 0.0000
ENERGY: 300 4771.5965 5706.7091 11352.0867 365.8677 -95.0202 2025.5709 0.0000 23953.4598 0.0000 48080.2706 0.0000 48080.2706 48080.2706 0.0000
ENERGY: 400 4555.4761 5174.9154 11009.7439 336.3817 -92.7522 713.9883 0.0000 23976.8159 0.0000 45674.5691 0.0000 45674.5691 45674.5691 0.0000
ENERGY: 500 4337.5233 4453.4793 10846.6814 312.7560 -89.4957 -907.6588 0.0000 24027.3385 0.0000 42980.6240 0.0000 42980.6240 42980.6240 0.0000
TCL: Running for 2000 steps
ETITLE: TS BOND ANGLE DIHED IMPRP ELECT VDW BOUNDARY MISC KINETIC TOTAL TEMP POTENTIAL TOTAL3 TEMPAVG
ENERGY: 500 4337.5233 4453.4793 10846.6814 312.7560 -89.4957 -907.6588 0.0000 24027.3385 15811.1840 58791.8080 302.1054 42980.6240 58746.3419 302.1054
ENERGY: 900 8291.1710 8940.5642 11855.4145 702.3570 -84.7439 -1199.7801 0.0000 24087.0290 12772.4565 65364.4682 244.0442 52592.0117 65448.1423 241.8574
ENERGY: 1300 8436.6592 9491.8173 11922.5063 714.2391 -84.3764 -1192.3951 0.0000 24044.1374 13964.8687 67297.4566 266.8277 53332.5879 67404.1967 264.9011
ENERGY: 1700 8792.9605 9674.9669 11907.2669 706.7742 -85.6659 -1325.5537 0.0000 23986.2443 14510.5624 68167.5557 277.2543 53656.9933 68281.6248 276.3955
ENERGY: 2100 8880.4437 9786.5536 11878.7017 723.3174 -85.5234 -1319.5037 0.0000 23963.9316 14951.4314 68779.3523 285.6780 53827.9209 68910.6080 282.7916
ENERGY: 2500 8997.7475 9934.6545 11840.7709 731.9848 -88.8232 -1340.5837 0.0000 23951.0318 14933.1950 68959.9776 285.3296 54026.7826 69088.4933 286.4141
