Info: SIMULATION PARAMETERS:
Info: TIMESTEP               1
Info: NUMBER OF STEPS        0
Info: STEPS PER CYCLE        20
Info: FIRST LDB TIMESTEP     100
Info: LAST LDB TIMESTEP     -1
Info: HOM BACKGROUND SCALING 1
Info: MIN ATOMS PER PATCH    40
Info: INITIAL TEMPERATURE    300
Info: CENTER OF MASS MOVING INITIALLY? NO
Info: DIELECTRIC             80
Info: EXCLUDE                SCALED ONE-FOUR
Info: 1-4 ELECTROSTATICS SCALED BY 1
Info: MODIFIED 1-4 VDW PARAMETERS WILL BE USED
Info: DCD FILENAME           simulation-step1.dcd
Info: DCD FREQUENCY          1000
Info: DCD FIRST STEP         1000
Info: NO EXTENDED SYSTEM TRAJECTORY OUTPUT
Info: NO VELOCITY DCD OUTPUT
Info: NO FORCE DCD OUTPUT
Info: OUTPUT FILENAME        simulation-step1
Info: BINARY OUTPUT FILES WILL BE USED
Info: RESTART FILENAME       simulation-step1.restart
Info: RESTART FREQUENCY      1000
Info: BINARY RESTART FILES WILL BE USED
Info: SWITCHING ACTIVE
Info: SWITCHING ON           9
Info: SWITCHING OFF          10
Info: PAIRLIST DISTANCE      11
Info: PAIRLIST SHRINK RATE   0.01
Info: PAIRLIST GROW RATE     0.01
Info: PAIRLIST TRIGGER       0.3
Info: PAIRLISTS PER CYCLE    2
Info: PAIRLISTS ENABLED
Info: MARGIN                 0
Info: HYDROGEN GROUP CUTOFF  2.5
Info: PATCH DIMENSION        13.5
Info: ENERGY OUTPUT STEPS    100
Info: CROSSTERM ENERGY INCLUDED IN DIHEDRAL
Info: TIMING OUTPUT STEPS    1000
Info: PRESSURE OUTPUT STEPS  100
Info: GRID FORCE ACTIVE
Info:  Please include this reference in published work using
Info:  the Gridforce module of NAMD: David Wells, Volha Abramkina,
Info:  and Aleksei Aksimentiev, J. Chem. Phys. 127:125101-10 (2007).
Info: MGRIDFORCE key 0
Info:            Potfile emd_6640-grid.dx
Info:            Scale 0.3 0.3 0.3
Info:            File 3jd8_cryst_altered-grid.pdb
Info:            Col O
Info:            ChargeCol B
Info:            VOffset 0 0 0
Info:            Continuous K1 FALSE
Info:            Continuous K2 FALSE
Info:            Continuous K3 FALSE
Info:            Volts FALSE
Info:            Gridforce-Lite FALSE
Info:            Gridforce-CheckSize TRUE
Info: LANGEVIN DYNAMICS ACTIVE
Info: LANGEVIN TEMPERATURE   300
Info: LANGEVIN USING BBK INTEGRATOR
Info: LANGEVIN DAMPING COEFFICIENT IS 5 INVERSE PS
Info: LANGEVIN DYNAMICS NOT APPLIED TO HYDROGENS
Info: USING VERLET I (r-RESPA) MTS SCHEME.
Info: C1 SPLITTING OF LONG RANGE ELECTROSTATICS
Info: PLACING ATOMS IN PATCHES BY HYDROGEN GROUPS
Info: RIGID BONDS TO HYDROGEN : WATER
Info:         ERROR TOLERANCE : 1e-08
Info:          MAX ITERATIONS : 100
Info: RIGID WATER USING SETTLE ALGORITHM
Info: NONBONDED FORCES EVALUATED EVERY 2 STEPS
Info: RANDOM NUMBER SEED     1528376404
Info: USE HYDROGEN BONDS?    NO
Info: COORDINATE PDB         3jd8_cryst_altered_autopsf.pdb
Info: STRUCTURE FILE         3jd8_cryst_altered_autopsf.psf
Info: PARAMETER file: CHARMM format!
Info: PARAMETERS             /opt/bioxray/programs/vmd-1.93/lib/plugins/noarch/tcl/readcharmmpar1.3/par_all36_lipid.prm
Info: PARAMETERS             /opt/bioxray/programs/vmd-1.93/lib/plugins/noarch/tcl/readcharmmpar1.3/par_all36_prot.prm
Info: PARAMETERS             /opt/bioxray/programs/vmd-1.93/lib/plugins/noarch/tcl/readcharmmpar1.3/par_all36_carb.prm
Info: PARAMETERS             /opt/bioxray/programs/vmd-1.93/lib/plugins/noarch/tcl/readcharmmpar1.3/toppar_water_ions_namd.str
Info: PARAMETERS             /opt/bioxray/programs/vmd-1.93/lib/plugins/noarch/tcl/readcharmmpar1.3/par_all36_cgenff.prm
Info: PARAMETERS             /opt/bioxray/programs/vmd-1.93/lib/plugins/noarch/tcl/readcharmmpar1.3/par_all36_na.prm
Info: USING ARITHMETIC MEAN TO COMBINE L-J SIGMA PARAMETERS
Info: SKIPPING rtf SECTION IN STREAM FILE
Info: SUMMARY OF PARAMETERS:
Info: 911 BONDS
Info: 2652 ANGLES
Info: 6440 DIHEDRAL
Info: 189 IMPROPER
Info: 6 CROSSTERM
Info: 350 VDW
Info: 6 VDW_PAIRS
Info: 0 NBTHOLE_PAIRS
Info: READING EXTRA BONDS FILE 3jd8_cryst_altered-extrabonds.txt
Info: READING EXTRA BONDS FILE 3jd8_cryst_altered-extrabonds-cis.txt
Info: READING EXTRA BONDS FILE 3jd8_cryst_altered-extrabonds-chi.txt
Info: READ 369 EXTRA BONDS
Info: READ 369 EXTRA ANGLES
Info: READ 2553 EXTRA DIHEDRALS
Info: READ 2360 EXTRA IMPROPERS
Info: STRUCTURE SUMMARY:
Info: 17558 ATOMS
Info: 18172 BONDS
Info: 32487 ANGLES
Info: 49747 DIHEDRALS
Info: 5339 IMPROPERS
Info: 1125 CROSSTERMS
Info: 0 EXCLUSIONS
Info: 0 RIGID BONDS
Info: 1 GRIDS ACTIVE
Info: 52674 DEGREES OF FREEDOM
Info: 8876 HYDROGEN GROUPS
Info: 4 ATOMS IN LARGEST HYDROGEN GROUP
Info: 8876 MIGRATION GROUPS
Info: 4 ATOMS IN LARGEST MIGRATION GROUP
Info: TOTAL MASS = 126087 amu
Info: TOTAL CHARGE = -32 e
Info: ADDED 96217 IMPLICIT EXCLUSIONS
Info: NONBONDED TABLE R-SQUARED SPACING: 0.0625
Info: NONBONDED TABLE SIZE: 705 POINTS
Info: ORIGINAL ATOMS MINMAX IS 98.46 90.219 82.469  165.442 171.848 239.515
Info: ADJUSTED ATOMS MINMAX IS 113.21 106.558 92.6086  151.811 156.586 221.202
Info: REMOVING COM VELOCITY 0.0438334 0.0393055 -0.0430102
Info: Updated CUDA force table with 4096 elements.
Info: Updated CUDA LJ table with 350 x 350 elements.
Info: Found 425 unique exclusion lists needing 7384 bytes
TCL: Minimizing for 500 steps
ETITLE: TS BOND ANGLE DIHED IMPRP ELECT VDW BOUNDARY MISC KINETIC TOTAL TEMP POTENTIAL TOTAL3 TEMPAVG
ENERGY: 0 3883.2277 4092.7160 10477.5025 48.7244 -115.2183 72259045.4620 0.0000 23774.2640 0.0000 72301206.6782 0.0000 72301206.6782 72301206.6782 0.0000
ENERGY: 100 6815.5055 11038.9210 12163.7742 606.3239 -103.0244 12723.5370 0.0000 23814.5508 0.0000 67059.5879 0.0000 67059.5879 67059.5879 0.0000
ENERGY: 200 5231.3449 7156.9288 11724.7766 464.2003 -95.3612 4423.6391 0.0000 23903.0475 0.0000 52808.5761 0.0000 52808.5761 52808.5761 0.0000
ENERGY: 300 4771.5965 5706.7091 11352.0867 365.8677 -95.0202 2025.5709 0.0000 23953.4598 0.0000 48080.2706 0.0000 48080.2706 48080.2706 0.0000
ENERGY: 400 4555.4761 5174.9154 11009.7439 336.3817 -92.7522 713.9883 0.0000 23976.8159 0.0000 45674.5691 0.0000 45674.5691 45674.5691 0.0000
ENERGY: 500 4337.5233 4453.4793 10846.6814 312.7560 -89.4957 -907.6588 0.0000 24027.3385 0.0000 42980.6240 0.0000 42980.6240 42980.6240 0.0000
TCL: Running for 2000 steps
ETITLE: TS BOND ANGLE DIHED IMPRP ELECT VDW BOUNDARY MISC KINETIC TOTAL TEMP POTENTIAL TOTAL3 TEMPAVG
ENERGY: 500 4337.5233 4453.4793 10846.6814 312.7560 -89.4957 -907.6588 0.0000 24027.3385 15811.1840 58791.8080 302.1054 42980.6240 58746.3419 302.1054
ENERGY: 900 8291.1710 8940.5642 11855.4145 702.3570 -84.7439 -1199.7801 0.0000 24087.0290 12772.4565 65364.4682 244.0442 52592.0117 65448.1423 241.8574
ENERGY: 1300 8436.6592 9491.8173 11922.5063 714.2391 -84.3764 -1192.3951 0.0000 24044.1374 13964.8687 67297.4566 266.8277 53332.5879 67404.1967 264.9011
ENERGY: 1700 8792.9605 9674.9669 11907.2669 706.7742 -85.6659 -1325.5537 0.0000 23986.2443 14510.5624 68167.5557 277.2543 53656.9933 68281.6248 276.3955
ENERGY: 2100 8880.4437 9786.5536 11878.7017 723.3174 -85.5234 -1319.5037 0.0000 23963.9316 14951.4314 68779.3523 285.6780 53827.9209 68910.6080 282.7916
ENERGY: 2500 8997.7475 9934.6545 11840.7709 731.9848 -88.8232 -1340.5837 0.0000 23951.0318 14933.1950 68959.9776 285.3296 54026.7826 69088.4933 286.4141
